*
*******************************************
*
*PMEG60T50ELP
*
*NEXPERIA Germany GmbH
*
*60V, 5A low leakage current Trench MEGA Schottky barrier rectifier
*
*
*VRmax     = 60V
*
*IFmax(AV) = 5A 
*VF        = 620mV @ IF = 5A
*IR        = 0.3渙 @ VR = 60V
*
*
*
*
*
*
*
*
*
*Package pinning does not match Spice model pinning.
*Package: CFP5 (SOD128)
*
*Package Pin 1: Cathode 
*Package Pin 2: Anode 
* 
*
*
*Extraction date (week/year): 08/2018
*Simulator: SPICE3
*
*******************************************
*#
.SUBCKT PMEG60T50ELP 1 2
R1 1 2 2.7E+008
D1 1 2
+ DIODE1
D2 1 2
+ DIODE2
*
*The resistor R1 and the diode D2 do not reflect 
*physical devices but improve 
*only modeling in the reverse 
*mode of operation.
*
.MODEL DIODE1 D
+ IS = 3.5E-008
+ N = 0.98
+ BV = 70
+ IBV = 0.03
+ RS = 0.03
+ CJO = 7.8E-010
+ VJ = 2.25
+ M = 0.9
+ FC = 0.5
+ TT = 0
+ EG = 0.69
+ XTI = 2
.MODEL DIODE2 D
+ IS = 5E-012
+ N = 1
+ RS = 1.2
.ENDS
*








